System Matpower Format/npcc_ny_lite_s12_perform_retention_core.m
function mpc = npcc_ny_lite_s12_perform_retention_core
%NPCC_NY_LITE_S12_PERFORM_RETENTION_CORE
%   S12 reference oracle only. This dense PERFORM Ward/Kron reduction is not
%   the promoted NYISO DLR model and must not supply equivalent branches to
%   either the S13-FULL construction parent or the future S14 operating case.

%% MATPOWER Case Format : Version 2
mpc.version = '2';

%%-----  Power Flow Data  -----%%
%% system MVA base
mpc.baseMVA = 100;

%% bus data
%	bus_i	type	Pd	Qd	Gs	Bs	area	Vm	Va	baseKV	zone	Vmax	Vmin	lam_P	lam_Q	mu_Vmax	mu_Vmin
mpc.bus = [
	1	1	74.05	0	0	0	68	0.991712817	94.5876356	115	68	1.1	0.9	5000.0000	0.0000	0.0000	0.0000;
	2	2	9.54386425	0.00957172863	4.76241832e-05	0.392924396	70	1.02	82.6613658	115	70	1.1	0.9	5000.0000	0.0000	0.0000	0.0000;
	3	2	9.49414771	0.0213875297	-0.000733663561	2.75916014	69	1.02	99.8799719	115	69	1.1	0.9	5000.0000	0.0000	0.0000	0.0000;
	4	2	60.1654518	5.49102636	0.0313185524	0.109516464	75	1.01	48.2578444	138	75	1.1	0.9	5000.0000	0.0000	0.0000	0.0000;
	5	2	175.465801	0.625031582	-0.0120057153	0.770899053	75	1.01	58.6228027	69	75	1.1	0.9	5000.0000	0.0000	0.0000	0.0000;
	6	2	203.040132	-4.20524758	-0.0306303265	1.07941411	75	1.02	58.9743714	115	75	1.1	0.9	5000.0000	0.0000	0.0000	0.0000;
	7	2	156.37523	3.85710626	-0.149643765	16.0030703	69	1.01827875	101.819098	115	69	1.1	0.9	5000.0000	0.0000	0.0000	0.0000;
	8	2	132.388171	-1.9448651	-0.0948907374	10.4740466	67	1.02	98.6022267	115	67	1.1	0.9	5000.0000	0.0000	0.0000	0.0000;
	9	2	18.6590655	8.45680668	0.0159232891	0.0955609964	74	1.02	62.6898837	345	74	1.1	0.9	5000.0000	0.0000	0.0000	0.0000;
	10	2	390.206839	-10.7340386	-0.378208133	10.5929727	67	1.02	92.883167	115	67	1.1	0.9	5000.0000	0.0000	0.0000	0.0000;
	11	2	27.841585	-2.13915036	-0.235557748	2.45989465	69	1.01996627	98.4736844	115	69	1.1	0.9	5000.0000	0.0000	0.0000	0.0000;
	12	2	71.2572309	0.911693893	-0.167199103	8.27741897	67	1.02	93.2917015	115	67	1.1	0.9	5000.0000	0.0000	0.0000	0.0000;
	13	2	83.3658076	0.779687388	-0.152880791	7.42810275	67	1.02	94.0333998	115	67	1.1	0.9	5000.0000	0.0000	0.0000	0.0000;
	14	2	10.7000626	0.0256397022	3.81242995e-05	0.369405967	70	1.02	83.3220272	115	70	1.1	0.9	5000.0000	0.0000	0.0000	0.0000;
	15	2	4.59878381	0.0482851093	0.00102011955	0.270155744	70	1.02	83.3386385	115	70	1.1	0.9	5000.0000	0.0000	0.0000	0.0000;
	16	2	7.47730376	-0.254045414	-0.0190518499	0.576601612	65	1.02	99.5507256	115	65	1.1	0.9	5000.0000	0.0000	0.0000	0.0000;
	17	2	96.9185354	-4.63787296	-0.0609291333	2.08052081	67	1.02	102.731749	115	67	1.1	0.9	5000.0000	0.0000	0.0000	0.0000;
	18	2	141.540863	-1.9430737	-0.175901336	8.6066956	68	0.999041196	92.9101275	115	68	1.1	0.9	5000.0000	0.0000	0.0000	0.0000;
	19	2	247.339694	3.93629707	-0.353845855	17.9497283	65	1.02	96.8842093	115	65	1.1	0.9	5000.0000	0.0000	0.0000	0.0000;
	20	2	73.3697022	1.3072256	-0.0744290162	4.63829627	65	1.02	98.0974299	115	65	1.1	0.9	5000.0000	0.0000	0.0000	0.0000;
	21	2	1.7571604	0.258511338	0.0190570178	0.153433174	65	1.02	101.669947	230	65	1.1	0.9	5000.0000	0.0000	0.0000	0.0000;
	22	2	232.13051	-6.04023332	-0.391275012	9.95911499	65	1.02	95.9222801	115	65	1.1	0.9	5000.0000	0.0000	0.0000	0.0000;
	23	2	28.3816628	-0.136365664	-0.0402904738	2.15893014	67	1.02	94.5196577	115	67	1.1	0.9	5000.0000	0.0000	0.0000	0.0000;
	24	2	18.0166743	-0.412295818	-0.0677230112	3.09070218	67	1.02	96.4306783	115	67	1.1	0.9	5000.0000	0.0000	0.0000	0.0000;
	25	1	0	0	0	0	67	1.02661636	95.2732973	230	67	1.1	0.9	5000.0000	0.0000	0.0000	0.0000;
	26	2	29.2239683	-0.560348877	-0.133347548	1.92189871	69	1.02	77.1331955	69	69	1.1	0.9	5000.0000	0.0000	0.0000	0.0000;
	27	1	0	0	0	0	70	1.0200137	84.4563987	345	70	1.1	0.9	5000.0000	0.0000	0.0000	0.0000;
	28	2	0	0	0	0	70	1.02	84.4721646	345	70	1.1	0.9	5000.0000	0.0000	0.0000	0.0000;
	29	2	112.783112	-0.00142775496	-0.0459881653	11.1336891	65	1.02	93.0927802	115	65	1.1	0.9	5000.0000	0.0000	0.0000	0.0000;
	30	2	0	0	0	0	74	1.02	62.4732683	345	74	1.1	0.9	5000.0000	0.0000	0.0000	0.0000;
	31	2	38.116297	0.74889075	0.0899905835	3.40063204	69	1.02	98.5179839	115	69	1.1	0.9	5000.0000	0.0000	0.0000	0.0000;
	32	2	150.287964	2.01901318	-0.385207478	14.9253412	67	1.02185933	87.438888	115	67	1.1	0.9	5000.0000	0.0000	0.0000	0.0000;
	33	2	2.08	0	0	0	69	1.02	85.9147726	115	69	1.1	0.9	5000.0000	0.0000	0.0000	0.0000;
	34	2	18.4673627	0.069505856	-0.0166934186	3.09996531	69	1.02	97.5555055	115	69	1.1	0.9	5000.0000	0.0000	0.0000	0.0000;
	35	2	16.4862468	0.210005283	0.00794763497	0.603801228	70	1.02	83.2192693	115	70	1.1	0.9	5000.0000	0.0000	0.0000	0.0000;
	36	2	62.3828725	0.390847205	0.000152159647	1.49821965	66	1.02	98.0510676	115	66	1.1	0.9	5000.0000	0.0000	0.0000	0.0000;
	37	2	40.1139408	0.752483407	-0.0667314203	3.71143861	67	1.02	87.8906164	115	67	1.1	0.9	5000.0000	0.0000	0.0000	0.0000;
	38	2	13.3997116	0.165408548	0.00950060794	1.09273987	69	1.01713716	106.822749	115	69	1.1	0.9	5000.0000	0.0000	0.0000	0.0000;
	39	2	373.497962	9.69522865	-0.561218444	17.489375	70	1.02	84.1171703	115	70	1.1	0.9	5000.0000	0.0000	0.0000	0.0000;
	40	2	168.644564	1.89438924	-0.000483282096	6.24956439	66	1.02	98.4504796	115	66	1.1	0.9	5000.0000	0.0000	0.0000	0.0000;
	41	1	17.7588997	2.2361922	0.0834148127	1.10063459	67	1.02118325	96.9961495	230	67	1.1	0.9	5000.0000	0.0000	0.0000	0.0000;
	42	2	0	0	0	0	65	1.02	101.482835	230	65	1.1	0.9	5000.0000	0.0000	0.0000	0.0000;
	43	1	32.5267078	1.48972879	-0.00192119728	3.27807306	65	1.01806474	97.8089094	115	65	1.1	0.9	5000.0000	0.0000	0.0000	0.0000;
	44	1	34.7368653	0.559646968	-0.0644960428	2.54250179	65	1.01810845	97.8250998	115	65	1.1	0.9	5000.0000	0.0000	0.0000	0.0000;
	45	2	67.4890336	-2.8381742	-0.254416603	8.27492828	67	1.01998674	89.1396764	115	67	1.1	0.9	5000.0000	0.0000	0.0000	0.0000;
	46	2	88.2217307	-3.76930254	-0.241785563	4.03223109	65	1.02	94.1634704	115	65	1.1	0.9	5000.0000	0.0000	0.0000	0.0000;
	47	2	448.455326	-13.2182978	-0.56703714	19.6706099	67	1.00723175	92.4623109	115	67	1.1	0.9	5000.0000	0.0000	0.0000	0.0000;
	48	1	45.8647984	-0.0374773878	-0.00426710201	0.689818376	68	0.995947118	94.5706754	115	68	1.1	0.9	5000.0000	0.0000	0.0000	0.0000;
	49	2	74.0505579	0.00229906592	1.79056769e-10	0.0170000007	68	0.991456725	94.526205	115	68	1.1	0.9	5000.0000	0.0000	0.0000	0.0000;
	50	2	136.496344	-1.89619377	-0.10190839	5.64971701	70	1.01846568	80.3603805	115	70	1.1	0.9	5000.0000	0.0000	0.0000	0.0000;
	51	2	391.669867	-2.54627056	-0.140869941	18.3322383	66	1.00271664	90.6141099	115	66	1.1	0.9	5000.0000	0.0000	0.0000	0.0000;
	52	2	43.4067506	0.304285871	-0.000960981155	2.38572374	66	1.01314233	92.1288166	115	66	1.1	0.9	5000.0000	0.0000	0.0000	0.0000;
	53	1	43.609694	-0.0218846085	-0.0289321542	3.1473387	66	1.00884619	93.4610347	115	66	1.1	0.9	5000.0000	0.0000	0.0000	0.0000;
	54	1	14.4	0	0	0	66	1.01003839	94.2605223	115	66	1.1	0.9	5000.0000	0.0000	0.0000	0.0000;
	55	1	200.169212	4.37619717	-0.0774983833	8.68620318	66	1.01079087	94.5759201	115	66	1.1	0.9	5000.0000	0.0000	0.0000	0.0000;
	56	2	172.842695	-3.27969558	-0.0178309094	12.1114715	65	0.993383662	89.4745948	115	65	1.1	0.9	5000.0000	0.0000	0.0000	0.0000;
	57	1	178.88252	-5.3129134	-0.0137636372	50.1081826	66	1.01006651	86.4635553	115	66	1.1	0.9	5000.0000	0.0000	0.0000	0.0000;
	58	2	266.311496	-2.45446301	-0.00478939004	24.6414867	66	1.00656174	89.367895	115	66	1.1	0.9	5000.0000	0.0000	0.0000	0.0000;
	59	1	47.9361622	10.6111901	0.504030944	4.33668828	67	1.02441719	95.1396499	345	67	1.1	0.9	5000.0000	0.0000	0.0000	0.0000;
	60	2	300.281231	-5.43532866	-0.328964677	9.53634015	65	1.02	96.2625703	115	65	1.1	0.9	5000.0000	0.0000	0.0000	0.0000;
	61	1	51.5180855	11.3735144	0.412683771	2.96092887	65	1.01951735	99.6678543	230	65	1.1	0.9	5000.0000	0.0000	0.0000	0.0000;
	62	1	43.1075783	7.7006653	0.213232921	2.33908473	65	1.01888885	99.9357516	230	65	1.1	0.9	5000.0000	0.0000	0.0000	0.0000;
	63	1	30.9290456	5.29561423	0.151204271	1.78521383	65	1.01876679	100.549815	230	65	1.1	0.9	5000.0000	0.0000	0.0000	0.0000;
	64	1	0	0	0	0	65	1.01817099	101.704537	230	65	1.1	0.9	5000.0000	0.0000	0.0000	0.0000;
	65	2	134.727683	-3.1430566	-0.275291611	6.2344301	65	1.02	96.482706	115	65	1.1	0.9	5000.0000	0.0000	0.0000	0.0000;
	66	1	0	0	0	0	67	1.01866918	101.268874	345	67	1.1	0.9	5000.0000	0.0000	0.0000	0.0000;
	67	1	0	0	0	0	67	1.0186475	101.295149	345	67	1.1	0.9	5000.0000	0.0000	0.0000	0.0000;
	68	1	41.2582842	14.9030819	0.637545312	3.37352377	67	1.01676681	102.232191	345	67	1.1	0.9	5000.0000	0.0000	0.0000	0.0000;
	69	1	54.6921651	19.4819861	0.294511187	1.65130971	67	1.01812065	102.05932	345	67	1.1	0.9	5000.0000	0.0000	0.0000	0.0000;
	70	2	117.282951	-2.47402448	-0.121212539	4.67666307	67	1.02	92.0198378	115	67	1.1	0.9	5000.0000	0.0000	0.0000	0.0000;
	71	2	26.4174389	3.92130212	0.0306707833	0.471876737	67	1.02	109.392356	345	67	1.1	0.9	5000.0000	0.0000	0.0000	0.0000;
	72	2	0	0	0	0	67	1.02	109.671723	345	67	1.1	0.9	5000.0000	0.0000	0.0000	0.0000;
	73	2	80.9305941	-1.83430573	-0.0772038364	5.5518181	69	1.02	87.51621	115	69	1.1	0.9	5000.0000	0.0000	0.0000	0.0000;
	74	2	39.8947148	1.28780812	0.11602571	3.93179195	69	1.02	98.2861518	115	69	1.1	0.9	5000.0000	0.0000	0.0000	0.0000;
	75	2	72.53718	-0.368830367	0.0102209908	7.74691314	69	1.02	88.0062703	115	69	1.1	0.9	5000.0000	0.0000	0.0000	0.0000;
	76	2	0	0	0	0	69	1.02	104.38074	230	69	1.1	0.9	5000.0000	0.0000	0.0000	0.0000;
	77	2	44.0989057	-1.07518785	-0.00769463153	3.21965581	69	1.02	81.7354181	115	69	1.1	0.9	5000.0000	0.0000	0.0000	0.0000;
	78	1	9.26186435	0.00152616623	-9.451404e-05	0.246496732	69	1.01996057	103.029355	115	69	1.1	0.9	5000.0000	0.0000	0.0000	0.0000;
	79	2	2.79003441	0.00244814639	8.06140577e-05	0.0583738816	69	1.02	103.055709	115	69	1.1	0.9	5000.0000	0.0000	0.0000	0.0000;
	80	2	5.23865084	-0.0033935189	3.22166024e-05	0.257928428	69	1.02	102.825227	115	69	1.1	0.9	5000.0000	0.0000	0.0000	0.0000;
	81	2	9.63032536	0.00603614805	0.00057674226	0.321041921	69	1.02	102.929927	115	69	1.1	0.9	5000.0000	0.0000	0.0000	0.0000;
	82	2	8.81310883	0.00173607298	-2.4713021e-05	0.217451501	69	1.02	102.855723	115	69	1.1	0.9	5000.0000	0.0000	0.0000	0.0000;
	83	2	11.3935869	0.128929406	-0.0044499937	0.765507779	69	1.02	102.667178	115	69	1.1	0.9	5000.0000	0.0000	0.0000	0.0000;
	84	1	6.66482317	0.188109047	0.000384078826	1.08152312	69	1.0107691	103.212274	115	69	1.1	0.9	5000.0000	0.0000	0.0000	0.0000;
	85	1	35.9889942	-0.060589288	-0.00487649767	1.50316284	69	1.01716702	106.800216	115	69	1.1	0.9	5000.0000	0.0000	0.0000	0.0000;
	86	1	4.15	0	0	0	69	1.01596741	105.545295	115	69	1.1	0.9	5000.0000	0.0000	0.0000	0.0000;
	87	1	90.005965	2.47143041	0.000521363521	2.2589421	68	0.991313491	94.382857	115	68	1.1	0.9	5000.0000	0.0000	0.0000	0.0000;
	88	1	48.5698796	-0.814857176	-0.235500908	4.66754014	69	1.01248624	78.7243589	115	69	1.1	0.9	5000.0000	0.0000	0.0000	0.0000;
	89	2	37.138379	0.208985315	-0.00137787	1.44179518	70	1.02	82.5683653	115	70	1.1	0.9	5000.0000	0.0000	0.0000	0.0000;
	90	2	35.3476159	0.0976645876	-0.000548653652	1.87911331	70	1.02	81.6935528	115	70	1.1	0.9	5000.0000	0.0000	0.0000	0.0000;
	91	2	179.994366	2.52110537	-0.102096843	10.0572619	70	1.02	82.2837313	115	70	1.1	0.9	5000.0000	0.0000	0.0000	0.0000;
	92	1	39.9629151	0.755402914	-0.0354467511	45.2764293	68	1.00983223	90.4643056	115	68	1.1	0.9	5000.0000	0.0000	0.0000	0.0000;
	93	1	62.8387157	-0.358821483	-0.00605282485	19.3059144	70	1.0098391	82.6143208	115	70	1.1	0.9	5000.0000	0.0000	0.0000	0.0000;
	94	2	24.4325119	-0.457753392	-0.00560179648	1.68597825	70	1.00822354	82.9329576	115	70	1.1	0.9	5000.0000	0.0000	0.0000	0.0000;
	95	2	154.170008	8.67342879	-0.245721204	7.85842314	70	1.02	84.6547917	115	70	1.1	0.9	5000.0000	0.0000	0.0000	0.0000;
	96	1	111.070362	4.36992858	-0.23000281	36.5795201	71	1.00995011	73.6693558	115	71	1.1	0.9	5000.0000	0.0000	0.0000	0.0000;
	97	2	39.7353925	-4.12412562	-0.267494061	1.48514661	69	1.02	72.3059024	69	69	1.1	0.9	5000.0000	0.0000	0.0000	0.0000;
	98	1	187.839674	15.4596164	0.716950375	10.9836186	71	1.00998449	69.9360329	345	71	1.1	0.9	5000.0000	0.0000	0.0000	0.0000;
	99	1	78.8201678	8.92137959	0.69071668	7.21558842	71	1.01032671	68.2916094	345	71	1.1	0.9	5000.0000	0.0000	0.0000	0.0000;
	100	2	179.02725	3.43745254	-0.356722621	41.5638296	71	1.02	79.7362652	138	71	1.1	0.9	5000.0000	0.0000	0.0000	0.0000;
	101	1	42.9529044	-1.95622295	-0.0405502301	2.08242378	71	1.01999412	78.2972686	69	71	1.1	0.9	5000.0000	0.0000	0.0000	0.0000;
	102	2	88.1381985	-1.56299069	-0.184392836	22.1505946	71	1.01897741	77.678756	138	71	1.1	0.9	5000.0000	0.0000	0.0000	0.0000;
	103	2	0	0	0	0	72	1.01357877	64.0301243	345	72	1.1	0.9	5000.0000	0.0000	0.0000	0.0000;
	104	2	129.440199	7.12458975	0.0503588412	8.25458869	75	1.01	52.5022865	138	75	1.1	0.9	5000.0000	0.0000	0.0000	0.0000;
	105	2	102.363712	0.308682301	-0.0054735334	4.27926173	75	1.01	51.8209253	138	75	1.1	0.9	5000.0000	0.0000	0.0000	0.0000;
	106	2	729.704833	2.83629254	0.0129335387	4.04813975	74	1.02	47.6101663	138	74	1.1	0.9	5000.0000	0.0000	0.0000	0.0000;
	107	2	7.41335181	3.49443977	0.00797287073	0.04445087	74	1.02	62.65074	345	74	1.1	0.9	5000.0000	0.0000	0.0000	0.0000;
	108	1	3.91888961	1.72140284	0.000684192403	0.00180575851	75	1.01296581	61.7780662	345	75	1.1	0.9	5000.0000	0.0000	0.0000	0.0000;
	109	2	0	0	0	0	68	1.02	109.269722	230	68	1.1	0.9	5000.0000	0.0000	0.0000	0.0000;
	110	2	110.700665	10.7473003	-0.124598451	6.74299175	70	1.02	81.5994011	115	70	1.1	0.9	5000.0000	0.0000	0.0000	0.0000;
	111	2	17.1115062	-0.2913376	0.00846662529	0.109106231	75	1.01	55.3652685	69	75	1.1	0.9	5000.0000	0.0000	0.0000	0.0000;
	112	2	158.009267	-0.055001094	-0.0308074009	7.14505783	73	1.00993197	59.8805294	115	73	1.1	0.9	5000.0000	0.0000	0.0000	0.0000;
	113	2	183.493358	-6.63842475	-0.065600029	0.930369155	75	1.01	54.8743178	69	75	1.1	0.9	5000.0000	0.0000	0.0000	0.0000;
	114	2	135.532153	-5.28045444	-0.00343424317	0.262748286	74	1.02	42.2943793	69	74	1.1	0.9	5000.0000	0.0000	0.0000	0.0000;
	115	2	0	0	0	0	74	1.02	79.6832436	345	74	1.1	0.9	5000.0000	0.0000	0.0000	0.0000;
	116	2	34.333804	0.492610854	0.0531178252	5.5277265	69	1.02	98.4323198	115	69	1.1	0.9	5000.0000	0.0000	0.0000	0.0000;
	117	2	91.3134553	0.731615605	-0.0403965125	2.9101512	67	1.01185551	97.776233	115	67	1.1	0.9	5000.0000	0.0000	0.0000	0.0000;
	118	2	27.0929701	0.0326005773	8.32462845e-06	0.0492887098	75	1.01	52.6515872	69	75	1.1	0.9	5000.0000	0.0000	0.0000	0.0000;
	119	2	56.9316975	1.40044771	0.00362106316	5.52120917	69	1.00738481	100.369743	115	69	1.1	0.9	5000.0000	0.0000	0.0000	0.0000;
	120	2	27.2932217	10.1605753	0.0357435353	0.144327743	75	1.03	59.5772331	345	75	1.1	0.9	5000.0000	0.0000	0.0000	0.0000;
	121	1	43.799101	-3.63104539	-0.00706665681	31.4341407	75	1.01000021	48.2392121	69	75	1.1	0.9	5000.0000	0.0000	0.0000	0.0000;
	122	2	41.6238	12.6856769	0.028820448	500.169199	75	1.03106351	59.8709299	345	75	1.1	0.9	5000.0000	0.0000	0.0000	0.0000;
	123	1	15.6856186	4.94875377	0.0210359769	0.0868612997	75	1.02982908	59.5199348	345	75	1.1	0.9	5000.0000	0.0000	0.0000	0.0000;
	124	1	0	0	0	0	72	1.013719	62.4966797	345	72	1.1	0.9	5000.0000	0.0000	0.0000	0.0000;
	125	1	0	0	0	0	72	1.01402422	62.5283876	345	72	1.1	0.9	5000.0000	0.0000	0.0000	0.0000;
	126	2	634.297226	-0.234129965	0.00022358283	1.50012862	74	1.01901997	47.5002961	138	74	1.1	0.9	5000.0000	0.0000	0.0000	0.0000;
	127	2	887.764969	8.55328419	0.0166453599	1.04192071	74	1.00969755	46.9375342	138	74	1.1	0.9	5000.0000	0.0000	0.0000	0.0000;
	128	2	560.419414	0.141206773	0.000379282932	0.788388175	74	1.01441575	47.2237379	138	74	1.1	0.9	5000.0000	0.0000	0.0000	0.0000;
	129	2	1063.87487	-5.53334046	-0.0130221532	10.1286717	74	1.01616354	47.3834071	138	74	1.1	0.9	5000.0000	0.0000	0.0000	0.0000;
	130	1	382.356872	10.3846845	-0.0849292168	56.970042	75	1.01299087	52.2084747	138	75	1.1	0.9	5000.0000	0.0000	0.0000	0.0000;
	131	2	175.280181	5.32491223	-0.0072371689	-98.8604056	75	1.01	54.6475978	69	75	1.1	0.9	5000.0000	0.0000	0.0000	0.0000;
	132	2	114.267062	-3.73895611	-0.0475339986	1.35511535	75	1.01	52.7720675	69	75	1.1	0.9	5000.0000	0.0000	0.0000	0.0000;
	133	2	40.6361228	4.63870547	0.0424487305	0.21783756	75	1.01251214	52.1729085	138	75	1.1	0.9	5000.0000	0.0000	0.0000	0.0000;
	134	1	36.1801188	0.000270897116	-7.10542736e-13	0.00099999999	75	1.00963835	42.2756322	69	75	1.1	0.9	5000.0000	0.0000	0.0000	0.0000;
	135	2	227.860164	-3.23423361	-0.00779132217	0.304142759	74	1.01559211	41.6598583	69	74	1.1	0.9	5000.0000	0.0000	0.0000	0.0000;
	136	1	78.8680036	-0.262116081	-0.000158143867	0.101019588	75	1.0035326	45.4467158	69	75	1.1	0.9	5000.0000	0.0000	0.0000	0.0000;
	137	1	460.38	0	0	0	74	1.01417477	47.4422846	138	74	1.1	0.9	5000.0000	0.0000	0.0000	0.0000;
	138	1	56.0565385	16.7866055	0.473709136	2.81905723	70	1.01267579	87.3569063	230	70	1.1	0.9	5000.0000	0.0000	0.0000	0.0000;
	139	2	7.05906067	0.0079595527	-3.83794276e-06	0.368103628	70	1.02	82.7086329	115	70	1.1	0.9	5000.0000	0.0000	0.0000	0.0000;
	140	1	22.8765037	5.11143951	0.167511584	1.06386215	70	1.01274807	85.3770139	230	70	1.1	0.9	5000.0000	0.0000	0.0000	0.0000;
	141	2	109.725676	-9.48856993	-0.443032802	3.93557253	71	1.00910557	69.4460676	69	71	1.1	0.9	5000.0000	0.0000	0.0000	0.0000;
	142	1	143.743721	28.3866512	0.229489911	6.71926468	71	1.01939475	77.0188684	345	71	1.1	0.9	5000.0000	0.0000	0.0000	0.0000;
	143	2	0	0	0	0	71	1.01	69.9393741	345	71	1.1	0.9	5000.0000	0.0000	0.0000	0.0000;
	144	2	31.7670543	0.478396173	0.0191592147	1.28188091	70	1.02	83.170023	115	70	1.1	0.9	5000.0000	0.0000	0.0000	0.0000;
	145	2	98.7712121	-0.112461782	-0.0130686787	5.52399737	70	1.02	81.7652616	115	70	1.1	0.9	5000.0000	0.0000	0.0000	0.0000;
	146	2	45.3546307	-0.0891196752	-0.020131139	2.43935306	70	1.02	82.061553	115	70	1.1	0.9	5000.0000	0.0000	0.0000	0.0000;
	147	2	14.5714181	0.00843735	0.000171390737	2.26587418	70	1.02	81.4278703	115	70	1.1	0.9	5000.0000	0.0000	0.0000	0.0000;
	148	2	17.620569	-0.00276493725	-3.73043354e-05	0.377998773	70	1.02	82.5425668	115	70	1.1	0.9	5000.0000	0.0000	0.0000	0.0000;
	149	2	134.478804	-1.7019554	-0.141833501	3.74532256	70	1.01893836	82.4203897	115	70	1.1	0.9	5000.0000	0.0000	0.0000	0.0000;
	150	1	51.4974199	10.5003007	0.296372653	1.8368242	70	1.01969522	83.2451393	345	70	1.1	0.9	5000.0000	0.0000	0.0000	0.0000;
	151	1	40.3504323	0.0751176977	0.000169715128	13.6790954	75	0.999998524	24.1099455	69	75	1.1	0.9	5000.0000	0.0000	0.0000	0.0000;
	152	2	6.96	0	0	0	75	1.00048302	24.1225284	69	75	1.1	0.9	5000.0000	0.0000	0.0000	0.0000;
	153	1	108.484174	0.00128924226	-0.000165531674	14.268664	75	0.999998539	24.1125188	69	75	1.1	0.9	5000.0000	0.0000	0.0000	0.0000;
	154	2	52.201429	-0.301500669	0.00359200998	0.518939102	75	1.01	28.1201616	69	75	1.1	0.9	5000.0000	0.0000	0.0000	0.0000;
	155	2	15.3	0	0	0	75	1.00582192	33.0203452	69	75	1.1	0.9	5000.0000	0.0000	0.0000	0.0000;
	156	1	41.203338	0.525234624	-0.00357130766	10.2643611	75	1.00000124	33.9599019	69	75	1.1	0.9	5000.0000	0.0000	0.0000	0.0000;
	157	1	45.2083062	-0.694173564	1.97571134e-05	0.310195989	75	1.00120581	38.5092295	69	75	1.1	0.9	5000.0000	0.0000	0.0000	0.0000;
	158	2	131.933046	-0.191665559	-0.378407914	7.86753329	71	1.0181392	75.4991665	115	71	1.1	0.9	5000.0000	0.0000	0.0000	0.0000;
	159	2	0	0	0	0	68	1.02	109.589881	230	68	1.1	0.9	5000.0000	0.0000	0.0000	0.0000;
	160	1	0	0	0	0	68	1.01999792	109.585524	230	68	1.1	0.9	5000.0000	0.0000	0.0000	0.0000;
	161	2	0	0	0	0	68	1.01910059	105.980102	230	68	1.1	0.9	5000.0000	0.0000	0.0000	0.0000;
	162	1	0	0	0	0	68	1.0190843	105.974053	230	68	1.1	0.9	5000.0000	0.0000	0.0000	0.0000;
	163	1	0	0	0	0	68	1.02000419	109.265752	230	68	1.1	0.9	5000.0000	0.0000	0.0000	0.0000;
	164	1	0	0	0	0	68	1.02000101	109.259358	230	68	1.1	0.9	5000.0000	0.0000	0.0000	0.0000;
	165	1	0	0	0	0	68	1.01999924	109.587559	230	68	1.1	0.9	5000.0000	0.0000	0.0000	0.0000;
	166	1	0	0	0	0	68	1.01908998	105.976685	230	68	1.1	0.9	5000.0000	0.0000	0.0000	0.0000;
	167	2	41.6225997	10.0872667	0.424724025	6.37421081	69	1.02	109.369468	230	69	1.1	0.9	5000.0000	0.0000	0.0000	0.0000;
	168	1	100.202181	21.1729342	0.360879691	5.73098085	71	1.01845167	75.4504811	345	71	1.1	0.9	5000.0000	0.0000	0.0000	0.0000;
	169	2	0.757095885	0.0533201233	0.00583486325	0.0382885851	71	1.02	72.8078102	500	71	1.1	0.9	5000.0000	0.0000	0.0000	0.0000;
	170	2	0	0	0	0	71	1.01822201	70.506061	345	71	1.1	0.9	5000.0000	0.0000	0.0000	0.0000;
	171	2	0	0	0	0	70	1.02	81.4974292	345	70	1.1	0.9	5000.0000	0.0000	0.0000	0.0000;
	172	1	20.1937228	4.83350008	0.178542416	1.01556637	70	1.01814283	84.3113797	345	70	1.1	0.9	5000.0000	0.0000	0.0000	0.0000;
	173	1	0	0	0	0	70	1.01999718	81.5000579	345	70	1.1	0.9	5000.0000	0.0000	0.0000	0.0000;
	174	1	0	0	0	0	70	1.01999647	81.500715	345	70	1.1	0.9	5000.0000	0.0000	0.0000	0.0000;
	175	2	9.88119626	0.346539749	-0.0117523033	1.36986259	70	1.02	84.1032807	115	70	1.1	0.9	5000.0000	0.0000	0.0000	0.0000;
	176	2	0	0	0	0	71	1.02	79.6282933	345	71	1.1	0.9	5000.0000	0.0000	0.0000	0.0000;
	177	1	0	0	0	0	71	1.01948152	79.7532465	345	71	1.1	0.9	5000.0000	0.0000	0.0000	0.0000;
	178	2	55.8306705	-7.40062557	-0.231121923	1.75156354	71	1.01937192	67.3967787	69	71	1.1	0.9	5000.0000	0.0000	0.0000	0.0000;
	179	1	20.6982392	-0.0457874313	6.09256018e-05	0.455942227	71	1.01273936	66.7217356	69	71	1.1	0.9	5000.0000	0.0000	0.0000	0.0000;
	180	2	43.9462252	-5.21458173	-0.154049836	1.34187408	71	1.02	68.7943414	69	71	1.1	0.9	5000.0000	0.0000	0.0000	0.0000;
	181	2	133.417518	-4.94266975	-0.0296726428	0.834593239	75	0.994742825	50.8559498	69	75	1.1	0.9	5000.0000	0.0000	0.0000	0.0000;
	182	1	91.2346833	-4.15624766	-0.013246944	13.4817096	75	1.00999837	53.7816861	69	75	1.1	0.9	5000.0000	0.0000	0.0000	0.0000;
	183	1	266.711648	10.1401101	0.508819656	14.0819266	75	1.01941322	53.3521048	138	75	1.1	0.9	5000.0000	0.0000	0.0000	0.0000;
	184	1	52.1009844	-0.119931711	-0.000464579107	0.211611732	75	1.00581847	52.1616511	69	75	1.1	0.9	5000.0000	0.0000	0.0000	0.0000;
	185	2	0	0	0	0	71	1.02	76.464195	345	71	1.1	0.9	5000.0000	0.0000	0.0000	0.0000;
	186	2	85.2726869	20.2411458	1.95501051	-24.9056132	71	1.01977684	76.4295179	345	71	1.1	0.9	5000.0000	0.0000	0.0000	0.0000;
	187	1	0	0	0	0	71	1.01049729	68.385244	345	71	1.1	0.9	5000.0000	0.0000	0.0000	0.0000;
	188	1	126.657065	-16.2373051	-0.69463919	33.3098603	71	1.00000769	60.9833921	115	71	1.1	0.9	5000.0000	0.0000	0.0000	0.0000;
	189	2	58.2042213	-1.4031662	-0.0473672919	2.32646703	70	1.01964628	80.7786551	115	70	1.1	0.9	5000.0000	0.0000	0.0000	0.0000;
	190	2	43.8306228	-2.18754476	-0.0876032131	1.88371351	70	1.02	81.274021	115	70	1.1	0.9	5000.0000	0.0000	0.0000	0.0000;
	191	1	0	0	0	0	73	1.01323835	65.5965476	345	73	1.1	0.9	5000.0000	0.0000	0.0000	0.0000;
	192	1	0	0	0	0	73	1.01262771	64.612189	345	73	1.1	0.9	5000.0000	0.0000	0.0000	0.0000;
	193	2	0	0	0	0	71	1.02	70.9638228	345	71	1.1	0.9	5000.0000	0.0000	0.0000	0.0000;
	194	2	0	0	0	0	73	1.01387936	66.9024196	345	73	1.1	0.9	5000.0000	0.0000	0.0000	0.0000;
	195	1	25.0235673	7.46746709	0.156342259	0.980319077	71	1.01137769	66.4953094	345	71	1.1	0.9	5000.0000	0.0000	0.0000	0.0000;
	196	1	228.153418	-4.49375393	-0.102322189	2.28810334	73	0.988428241	56.2691532	115	73	1.1	0.9	5000.0000	0.0000	0.0000	0.0000;
	197	1	140.55	0	0	0	73	0.982340437	54.978968	115	73	1.1	0.9	5000.0000	0.0000	0.0000	0.0000;
	198	1	129.18838	-2.01631762	-0.0183505296	1.44151024	73	0.982336325	55.0517938	115	73	1.1	0.9	5000.0000	0.0000	0.0000	0.0000;
	199	1	0	0	0	0	65	1.01969624	104.762275	230	65	1.1	0.9	5000.0000	0.0000	0.0000	0.0000;
	200	1	0	0	0	0	65	1.01877192	100.554446	230	65	1.1	0.9	5000.0000	0.0000	0.0000	0.0000;
...
];

%% generator data
%	bus	Pg	Qg	Qmax	Qmin	Vg	mBase	status	Pmax	Pmin	Pc1	Pc2	Qc1min	Qc1max	Qc2min	Qc2max	ramp_agc	ramp_10	ramp_30	ramp_q	apf	mu_Pmax	mu_Pmin	mu_Qmax	mu_Qmin
mpc.gen = [
	2	2.744616	-0.209143	1.8	-1.5	1.02	100	1	2.8	1	0	0	0	0	0	0	0	5000	15000	0	0	0.0000	0.0000	0.0000	0.0000;
	2	2.744616	-0.209143	1.8	-1.5	1.02	100	1	2.8	1	0	0	0	0	0	0	0	5000	15000	0	0	0.0000	0.0000	0.0000	0.0000;
	2	2.94066	-0.209143	2	-1.7	1.02	100	1	3	1	0	0	0	0	0	0	0	5000	15000	0	0	0.0000	0.0000	0.0000	0.0000;
	2	2.94066	-0.209143	2	-1.7	1.02	100	1	3	1	0	0	0	0	0	0	0	5000	15000	0	0	0.0000	0.0000	0.0000	0.0000;
	3	7.841761	-1.256166	5.2	-4.4	1.02	100	1	8	7	0	0	0	0	0	0	0	5000	15000	0	0	0.0000	0.0000	0.0000	0.0000;
	3	7.841761	-1.256166	5.2	-4.4	1.02	100	1	8	7	0	0	0	0	0	0	0	5000	15000	0	0	0.0000	0.0000	0.0000	0.0000;
	4	0	0	11.7	-9.9	1.01	100	0	18.000001	10.5	0	0	0	0	0	0	0	101	303	0	0	0.0000	0.0000	0.0000	0.0000;
	4	11.4	-9.9	11.7	-9.9	1.01	100	1	18.000001	11.4	0	0	0	0	0	0	0	102.5	307.5	0	0	0.0000	0.0000	0.0000	0.0000;
	4	11	-9.9	11.7	-9.9	1.01	100	1	18.000001	11	0	0	0	0	0	0	0	100.5	301.5	0	0	0.0000	0.0000	0.0000	0.0000;
	4	11.2	-9.9	11.7	-9.9	1.01	100	1	18.000001	11.2	0	0	0	0	0	0	0	99.5	298.5	0	0	0.0000	0.0000	0.0000	0.0000;
	4	11.4	-9.9	11.7	-9.9	1.01	100	1	18.000001	11.4	0	0	0	0	0	0	0	76	228	0	0	0.0000	0.0000	0.0000	0.0000;
	4	10.7	-9.9	11.7	-9.9	1.01	100	1	18.000001	10.7	0	0	0	0	0	0	0	102.5	307.5	0	0	0.0000	0.0000	0.0000	0.0000;
	4	9	-9.9	11.7	-9.9	1.01	100	1	18.000001	9	0	0	0	0	0	0	0	102	306	0	0	0.0000	0.0000	0.0000	0.0000;
	4	29.800001	-23	27.200001	-23	1.01	100	1	41.800001	29.800001	0	0	0	0	0	0	0	246	738	0	0	0.0000	0.0000	0.0000	0.0000;
	4	0	0	27.200001	-23	1.01	100	0	41.800001	30.000001	0	0	0	0	0	0	0	250	750	0	0	0.0000	0.0000	0.0000	0.0000;
	4	0	0	27.200001	-23	1.01	100	0	41.800001	30.000001	0	0	0	0	0	0	0	252.5	757.5	0	0	0.0000	0.0000	0.0000	0.0000;
	4	30.000001	-23	27.200001	-23	1.01	100	1	41.800001	30.000001	0	0	0	0	0	0	0	243.5	730.5	0	0	0.0000	0.0000	0.0000	0.0000;
	4	183.000004	-30.697578	122.2	-103.400004	1.01	100	1	188	15.000001	0	0	0	0	0	0	0	79.8	239.4	0	0	0.0000	0.0000	0.0000	0.0000;
	4	183.000004	-30.697578	122.2	-103.400004	1.01	100	1	188	15.000001	0	0	0	0	0	0	0	76.2	228.6	0	0	0.0000	0.0000	0.0000	0.0000;
	5	15.898612	-8.8	10.4	-8.8	1.01	100	1	16	10	0	0	0	0	0	0	0	88	264	0	0	0.0000	0.0000	0.0000	0.0000;
	5	52.664155	-18.347043	34.5	-29.2	1.01	100	1	52.999997	37	0	0	0	0	0	0	0	235	705	0	0	0.0000	0.0000	0.0000	0.0000;
	5	52.664155	-18.347043	34.5	-29.2	1.01	100	1	52.999997	37	0	0	0	0	0	0	0	235	705	0	0	0.0000	0.0000	0.0000	0.0000;
	5	54.651493	-18.347043	35.800001	-30.3	1.01	100	1	55.000001	40.000001	0	0	0	0	0	0	0	275.5	826.5	0	0	0.0000	0.0000	0.0000	0.0000;
	5	0	0	35.800001	-30.3	1.01	100	0	55.000001	44.100001	0	0	0	0	0	0	0	343	1029	0	0	0.0000	0.0000	0.0000	0.0000;
	6	15.898612	-8.8	10.4	-8.8	1.02	100	1	16	10.6	0	0	0	0	0	0	0	79	237	0	0	0.0000	0.0000	0.0000	0.0000;
	6	0	0	251.600003	-212.899995	1.02	100	0	386.999989	40.000001	0	0	0	0	0	0	0	159.6	478.8	0	0	0.0000	0.0000	0.0000	0.0000;
	6	384.54771	-12.677054	251.600003	-212.899995	1.02	100	1	386.999989	30.000001	0	0	0	0	0	0	0	157.68	473.04	0	0	0.0000	0.0000	0.0000	0.0000;
	6	386.999989	-12.677054	251.600003	-212.899995	1.02	100	1	386.999989	40.000001	0	0	0	0	0	0	0	158.6	475.8	0	0	0.0000	0.0000	0.0000	0.0000;
	6	386.999989	-12.677054	251.600003	-212.899995	1.02	100	1	386.999989	40.000001	0	0	0	0	0	0	0	158.48	475.44	0	0	0.0000	0.0000	0.0000	0.0000;
	6	129.999995	-12.677054	9900	-9900	1.02	100	1	129.999995	129.999995	0	0	0	0	0	0	0	0	0	0	0	0.0000	0.0000	0.0000	0.0000;
	7	10.782421	7.2	7.2	-6.1	1.02	100	1	11	0.2	0	0	0	0	0	0	0	5000	15000	0	0	0.0000	0.0000	0.0000	0.0000;
	7	11.762641	7.8	7.8	-6.6	1.02	100	1	12	0.2	0	0	0	0	0	0	0	5000	15000	0	0	0.0000	0.0000	0.0000	0.0000;
	7	12.742861	8.5	8.5	-7.2	1.02	100	1	13	0.2	0	0	0	0	0	0	0	5000	15000	0	0	0.0000	0.0000	0.0000	0.0000;
	8	8.821981	4.911201	5.9	-5	1.02	100	1	9	3	0	0	0	0	0	0	0	5000	15000	0	0	0.0000	0.0000	0.0000	0.0000;
	8	8.821981	4.911201	5.9	-5	1.02	100	1	9	3	0	0	0	0	0	0	0	5000	15000	0	0	0.0000	0.0000	0.0000	0.0000;
	8	8.821981	4.911201	5.9	-5	1.02	100	1	9	3	0	0	0	0	0	0	0	5000	15000	0	0	0.0000	0.0000	0.0000	0.0000;
	8	8.821981	4.911201	5.9	-5	1.02	100	1	9	3	0	0	0	0	0	0	0	5000	15000	0	0	0.0000	0.0000	0.0000	0.0000;
	9	594.999981	37.359586	446.25001	-416.499996	1.02	100	1	594.999981	320.000005	0	0	0	0	0	0	0	900	2700	0	0	0.0000	0.0000	0.0000	0.0000;
	9	650	37.359586	487.5	-455.000019	1.02	100	1	650	320.000005	0	0	0	0	0	0	0	900	2700	0	0	0.0000	0.0000	0.0000	0.0000;
	10	121.823132	44.847983	91.949999	-85.820001	1.02	100	1	122.599995	41.999999	0	0	0	0	0	0	0	890	2670	0	0	0.0000	0.0000	0.0000	0.0000;
	11	0	0	47.174999	-44.029999	1.02	100	0	62.900001	34.999999	0	0	0	0	0	0	0	560	1680	0	0	0.0000	0.0000	0.0000	0.0000;
	12	111.2903	-7.886115	72.799999	-61.6	1.02	100	1	112	31.999999	0	0	0	0	0	0	0	42.52	127.56	0	0	0.0000	0.0000	0.0000	0.0000;
	13	4.07402	-1.636664	2.7	-2.3	1.02	100	1	4.1	0	0	0	0	0	0	0	0	0	0	0	0	0.0000	0.0000	0.0000	0.0000;
	13	55.048954	-1.636664	36.000001	-30.500001	1.02	100	1	55.400002	0	0	0	0	0	0	0	0	0	0	0	0	0.0000	0.0000	0.0000	0.0000;
	14	0.98022	-0.6	0.7	-0.6	1.02	100	1	1	0.2	0	0	0	0	0	0	0	5000	15000	0	0	0.0000	0.0000	0.0000	0.0000;
	14	0.98022	-0.6	0.7	-0.6	1.02	100	1	1	0.2	0	0	0	0	0	0	0	5000	15000	0	0	0.0000	0.0000	0.0000	0.0000;
	14	2.548572	-1.4	1.7	-1.4	1.02	100	1	2.6	0.9	0	0	0	0	0	0	0	5000	15000	0	0	0.0000	0.0000	0.0000	0.0000;
	14	2.548572	-1.4	1.7	-1.4	1.02	100	1	2.6	0.9	0	0	0	0	0	0	0	5000	15000	0	0	0.0000	0.0000	0.0000	0.0000;
	14	2.548572	-1.4	1.7	-1.4	1.02	100	1	2.6	2.3	0	0	0	0	0	0	0	5000	15000	0	0	0.0000	0.0000	0.0000	0.0000;
	14	24.113415	-3.042392	16	-13.500001	1.02	100	1	24.600001	6	0	0	0	0	0	0	0	5000	15000	0	0	0.0000	0.0000	0.0000	0.0000;
	14	24.113415	-3.042392	16	-13.500001	1.02	100	1	24.600001	6	0	0	0	0	0	0	0	5000	15000	0	0	0.0000	0.0000	0.0000	0.0000;
	15	147.000003	-32.940623	110.249996	-102.900004	1.02	100	1	147.000003	113	0	0	0	0	0	0	0	650	1950	0	0	0.0000	0.0000	0.0000	0.0000;
	16	56.241345	-9.887437	42.449999	-39.62	1.02	100	1	56.599998	44	0	0	0	0	0	0	0	540	1620	0	0	0.0000	0.0000	0.0000	0.0000;
	17	57.036275	14.665274	43.05	-40.180001	1.02	100	1	57.4	44.499999	0	0	0	0	0	0	0	500	1500	0	0	0.0000	0.0000	0.0000	0.0000;
	18	3.136704	2.1	2.1	-1.8	1.02	100	1	3.2	0	0	0	0	0	0	0	0	5000	15000	0	0	0.0000	0.0000	0.0000	0.0000;
	18	3.136704	2.1	2.1	-1.8	1.02	100	1	3.2	0	0	0	0	0	0	0	0	5000	15000	0	0	0.0000	0.0000	0.0000	0.0000;
	18	3.92088	2.6	2.6	-2.2	1.02	100	1	4	0	0	0	0	0	0	0	0	5000	15000	0	0	0.0000	0.0000	0.0000	0.0000;
	18	3.92088	2.6	2.6	-2.2	1.02	100	1	4	0	0	0	0	0	0	0	0	5000	15000	0	0	0.0000	0.0000	0.0000	0.0000;
	18	5.88132	3.9	3.9	-3.3	1.02	100	1	6	0	0	0	0	0	0	0	0	5000	15000	0	0	0.0000	0.0000	0.0000	0.0000;
	18	6.861541	4.6	4.6	-3.9	1.02	100	1	7	0	0	0	0	0	0	0	0	5000	15000	0	0	0.0000	0.0000	0.0000	0.0000;
	19	190.435088	23.531631	165.974998	-154.910004	1.02	100	1	221.300006	103.999996	0	0	0	0	0	0	0	1590	4770	0	0	0.0000	0.0000	0.0000	0.0000;
	20	99.863166	-12.516913	70.4	-55.299997	1.02	100	1	100.5	0	0	0	0	0	0	0	0	0	0	0	0	0.0000	0.0000	0.0000	0.0000;
	21	125.201583	-11.060338	88.200003	-69.300002	1.02	100	1	125.999999	0	0	0	0	0	0	0	0	0	0	0	0	0.0000	0.0000	0.0000	0.0000;
	22	65.28368	13.30934	49.274999	-45.989999	1.02	100	1	65.700001	40.599999	0	0	0	0	0	0	0	580	1740	0	0	0.0000	0.0000	0.0000	0.0000;
	23	16.097346	-0.083381	11.3	-8.9	1.02	100	1	16.2	0	0	0	0	0	0	0	0	0	0	0	0	0.0000	0.0000	0.0000	0.0000;
	24	37.262374	-8.453422	26.300001	-20.6	1.02	100	1	37.5	0	0	0	0	0	0	0	0	0	0	0	0	0.0000	0.0000	0.0000	0.0000;
	26	0.784176	0.6	0.6	-0.4	1.02	100	1	0.8	0.4	0	0	0	0	0	0	0	5000	15000	0	0	0.0000	0.0000	0.0000	0.0000;
	26	9.802201	3.362943	7	-5.5	1.02	100	1	10	4	0	0	0	0	0	0	0	5000	15000	0	0	0.0000	0.0000	0.0000	0.0000;
	28	0	0	66.149998	-61.739999	1.02	100	0	88.199997	60.000002	0	0	0	0	0	0	0	750	2250	0	0	0.0000	0.0000	0.0000	0.0000;
	28	653.643417	11.450057	490.275002	-457.590008	1.02	100	1	653.700018	315.00001	0	0	0	0	0	0	0	900	2700	0	0	0.0000	0.0000	0.0000	0.0000;
	29	0	0	17.200001	-13.500001	1.02	100	0	24.5	5	0	0	0	0	0	0	0	10	30	0	0	0.0000	0.0000	0.0000	0.0000;
	29	24.344754	-1.972762	17.200001	-13.500001	1.02	100	1	24.5	5	0	0	0	0	0	0	0	10	30	0	0	0.0000	0.0000	0.0000	0.0000;
	29	47.000274	-1.972762	33.1	-25.999999	1.02	100	1	47.299999	9	0	0	0	0	0	0	0	235	705	0	0	0.0000	0.0000	0.0000	0.0000;
	29	8	-1.972762	20	-20	1.02	100	0	10	8	0	0	0	0	0	0	0	0	0	0	0	0.0000	0.0000	0.0000	0.0000;
	30	0	0	0.7	-0.6	1.02	100	0	1	0.3	0	0	0	0	0	0	0	2	6	0	0	0.0000	0.0000	0.0000	0.0000;
	30	0	0	0.9	-0.7	1.02	100	0	1.3	0.4	0	0	0	0	0	0	0	2.6	7.8	0	0	0.0000	0.0000	0.0000	0.0000;
	30	0	0	1	-0.8	1.02	100	0	1.4	0.4	0	0	0	0	0	0	0	2.8	8.4	0	0	0.0000	0.0000	0.0000	0.0000;
	30	0	0	1	-0.8	1.02	100	0	1.4	0.4	0	0	0	0	0	0	0	2.8	8.4	0	0	0.0000	0.0000	0.0000	0.0000;
	30	0	0	1.8	-1.4	1.02	100	0	2.5	0.1	0	0	0	0	0	0	0	0.6	1.8	0	0	0.0000	0.0000	0.0000	0.0000;
	30	0	0	1.9	-1.5	1.02	100	0	2.7	0.8	0	0	0	0	0	0	0	5.4	16.2	0	0	0.0000	0.0000	0.0000	0.0000;
	30	0	0	1.9	-1.5	1.02	100	0	2.7	0.8	0	0	0	0	0	0	0	5.4	16.2	0	0	0.0000	0.0000	0.0000	0.0000;
	30	0	0	2.1	-1.7	1.02	100	0	3	0.1	0	0	0	0	0	0	0	0.8	2.4	0	0	0.0000	0.0000	0.0000	0.0000;
	30	0	0	2.1	-1.7	1.02	100	0	3	0.1	0	0	0	0	0	0	0	0.8	2.4	0	0	0.0000	0.0000	0.0000	0.0000;
	30	7.452475	-4.1	5.3	-4.1	1.02	100	1	7.5	4	0	0	0	0	0	0	0	37.5	112.5	0	0	0.0000	0.0000	0.0000	0.0000;
	30	46.702179	-8.824223	32.9	-25.9	1.02	100	1	47	1	0	0	0	0	0	0	0	233	699	0	0	0.0000	0.0000	0.0000	0.0000;
	30	0	0	109.300005	-85.900003	1.02	100	0	156.200004	44.999999	0	0	0	0	0	0	0	59.48	178.44	0	0	0.0000	0.0000	0.0000	0.0000;
	30	178.859413	-8.824223	125.999999	-99.000001	1.02	100	1	179.999995	110.000002	0	0	0	0	0	0	0	398.2	1194.6	0	0	0.0000	0.0000	0.0000	0.0000;
	30	178.859413	-8.824223	125.999999	-99.000001	1.02	100	1	179.999995	110.000002	0	0	0	0	0	0	0	390	1170	0	0	0.0000	0.0000	0.0000	0.0000;
	30	0	0	139.999998	-110.000002	1.02	100	0	200	64.999998	0	0	0	0	0	0	0	72.12	216.36	0	0	0.0000	0.0000	0.0000	0.0000;
	31	55.148321	-6.652479	38.9	-30.500001	1.02	100	1	55.500001	15.000001	0	0	0	0	0	0	0	0	0	0	0	0.0000	0.0000	0.0000	0.0000;
	32	5	1.054758	20	-20	1.0221	100	0	10	5	0	0	0	0	0	0	0	0	0	0	0	0.0000	0.0000	0.0000	0.0000;
	33	34.281385	-8.052556	24.2	-19	1.02	100	1	34.5	0	0	0	0	0	0	0	0	0	0	0	0	0.0000	0.0000	0.0000	0.0000;
	34	7.841761	-1.994335	5.6	-4.4	1.02	100	1	8	4	0	0	0	0	0	0	0	5000	15000	0	0	0.0000	0.0000	0.0000	0.0000;
	34	7.841761	-1.994335	5.6	-4.4	1.02	100	1	8	4	0	0	0	0	0	0	0	5000	15000	0	0	0.0000	0.0000	0.0000	0.0000;
	35	10.782421	-0.991179	7.7	-6.1	1.02	100	1	11	1	0	0	0	0	0	0	0	5000	15000	0	0	0.0000	0.0000	0.0000	0.0000;
	35	10.782421	-0.991179	7.7	-6.1	1.02	100	1	11	1	0	0	0	0	0	0	0	5000	15000	0	0	0.0000	0.0000	0.0000	0.0000;
	36	66.575444	-0.00175	50.25	-46.900001	1.02	100	1	67.000002	37	0	0	0	0	0	0	0	510	1530	0	0	0.0000	0.0000	0.0000	0.0000;
	37	47.397739	-18.961684	33.399999	-26.199999	1.02	100	1	47.7	41.999999	0	0	0	0	0	0	0	235	705	0	0	0.0000	0.0000	0.0000	0.0000;
	38	0	0	1.4	-1.1	1.02	100	0	2	0.1	0	0	0	0	0	0	0	4	12	0	0	0.0000	0.0000	0.0000	0.0000;
	38	0	0	76.574999	-71.469998	1.02	100	0	102.100003	75.999999	0	0	0	0	0	0	0	780	2340	0	0	0.0000	0.0000	0.0000	0.0000;
	39	708.878994	-63.215643	669.824982	-625.169992	1.02	100	1	893.099976	666.400003	0	0	0	0	0	0	0	1200	3600	0	0	0.0000	0.0000	0.0000	0.0000;
	40	610.109282	-34.765571	429.799986	-337.700009	1.02	100	1	613.999987	461.000013	0	0	0	0	0	0	0	15.106	45.318	0	0	0.0000	0.0000	0.0000	0.0000;
	45	0	0	0.7	-0.6	1.02	100	0	1	0.3	0	0	0	0	0	0	0	2	6	0	0	0.0000	0.0000	0.0000	0.0000;
	45	0	0	0.7	-0.6	1.02	100	0	1	0.3	0	0	0	0	0	0	0	2	6	0	0	0.0000	0.0000	0.0000	0.0000;
	45	0	0	12.6	-11.76	1.02	100	0	16.8	8.2	0	0	0	0	0	0	0	140	420	0	0	0.0000	0.0000	0.0000	0.0000;
	45	0	0	15.525	-14.489999	1.02	100	0	20.7	8.4	0	0	0	0	0	0	0	170	510	0	0	0.0000	0.0000	0.0000	0.0000;
	46	19.873267	3.915991	14	-11	1.02	100	1	20	0	0	0	0	0	0	0	0	0	0	0	0	0.0000	0.0000	0.0000	0.0000;
	47	0	0	77.025002	-71.890002	1.02	100	0	102.699995	44.999999	0	0	0	0	0	0	0	540	1620	0	0	0.0000	0.0000	0.0000	0.0000;
	49	0	0	214.199996	-199.919999	1.02	100	0	285.599995	89.999998	0	0	0	0	0	0	0	900	2700	0	0	0.0000	0.0000	0.0000	0.0000;
	50	19.873267	14	14	-11	1.02	100	1	20	0	0	0	0	0	0	0	0	200	600	0	0	0.0000	0.0000	0.0000	0.0000;
	51	0	0	5	-4	1.02	100	0	7.2	1	0	0	0	0	0	0	0	2.88	8.64	0	0	0.0000	0.0000	0.0000	0.0000;
	51	0	0	12.7	-10	1.02	100	0	18.2	2	0	0	0	0	0	0	0	10	30	0	0	0.0000	0.0000	0.0000	0.0000;
	52	0	0	0.6	-0.4	1.02	100	0	0.8	0.6	0	0	0	0	0	0	0	0	0	0	0	0.0000	0.0000	0.0000	0.0000;
	52	0	0	0.6	-0.4	1.02	100	0	0.8	0.6	0	0	0	0	0	0	0	0	0	0	0	0.0000	0.0000	0.0000	0.0000;
	52	0	0	0.6	-0.4	1.02	100	0	0.8	0.6	0	0	0	0	0	0	0	0	0	0	0	0.0000	0.0000	0.0000	0.0000;
	52	0	0	0.6	-0.4	1.02	100	0	0.8	0.6	0	0	0	0	0	0	0	0	0	0	0	0.0000	0.0000	0.0000	0.0000;
	52	0	0	0.6	-0.4	1.02	100	0	0.8	0.6	0	0	0	0	0	0	0	0	0	0	0	0.0000	0.0000	0.0000	0.0000;
	52	0	0	0.6	-0.4	1.02	100	0	0.8	0.6	0	0	0	0	0	0	0	0	0	0	0	0.0000	0.0000	0.0000	0.0000;
	52	0	0	0.6	-0.4	1.02	100	0	0.8	0.6	0	0	0	0	0	0	0	0	0	0	0	0.0000	0.0000	0.0000	0.0000;
	52	0	0	0.6	-0.4	1.02	100	0	0.8	0.6	0	0	0	0	0	0	0	0	0	0	0	0.0000	0.0000	0.0000	0.0000;
	52	0	0	1.1	-0.9	1.02	100	0	1.6	0.8	0	0	0	0	0	0	0	0	0	0	0	0.0000	0.0000	0.0000	0.0000;
	52	0	0	1.1	-0.9	1.02	100	0	1.6	0.8	0	0	0	0	0	0	0	0	0	0	0	0.0000	0.0000	0.0000	0.0000;
	52	0	0	1.1	-0.9	1.02	100	0	1.6	0.8	0	0	0	0	0	0	0	0	0	0	0	0.0000	0.0000	0.0000	0.0000;
	56	0	0	0.8	-0.6	1.02	100	0	1.1	0.5	0	0	0	0	0	0	0	2	6	0	0	0.0000	0.0000	0.0000	0.0000;
	56	0	0	49.649999	-46.340001	1.02	100	0	66.2	48.800001	0	0	0	0	0	0	0	510	1530	0	0	0.0000	0.0000	0.0000	0.0000;
	58	0.392088	0.3	0.3	-0.2	1.02	100	1	0.4	0.1	0	0	0	0	0	0	0	5000	15000	0	0	0.0000	0.0000	0.0000	0.0000;
	58	0	0	2.1	-1.7	1.02	100	0	3	0.4	0	0	0	0	0	0	0	0.0572	0.1716	0	0	0.0000	0.0000	0.0000	0.0000;
	58	0	0	8.8	-6.9	1.02	100	0	12.5	4	0	0	0	0	0	0	0	0.325	0.975	0	0	0.0000	0.0000	0.0000	0.0000;
	58	12.546818	9	9	-7	1.02	100	1	12.800001	0	0	0	0	0	0	0	0	5000	15000	0	0	0.0000	0.0000	0.0000	0.0000;
	58	12.546818	9	9	-7	1.02	100	1	12.800001	0	0	0	0	0	0	0	0	5000	15000	0	0	0.0000	0.0000	0.0000	0.0000;
	58	0	0	10.5	-8.3	1.02	100	0	15.000001	4	0	0	0	0	0	0	0	0.39	1.17	0	0	0.0000	0.0000	0.0000	0.0000;
	58	17.643961	12.6	12.6	-9.9	1.02	100	1	18.000001	0	0	0	0	0	0	0	0	5000	15000	0	0	0.0000	0.0000	0.0000	0.0000;
	58	0	0	17.900001	-14.1	1.02	100	0	25.600001	5	0	0	0	0	0	0	0	0.6656	1.9968	0	0	0.0000	0.0000	0.0000	0.0000;
	58	0	0	17.900001	-14.1	1.02	100	0	25.600001	5	0	0	0	0	0	0	0	0.6656	1.9968	0	0	0.0000	0.0000	0.0000	0.0000;
	58	0	0	17.900001	-14.1	1.02	100	0	25.600001	5	0	0	0	0	0	0	0	0.6656	1.9968	0	0	0.0000	0.0000	0.0000	0.0000;
	58	0	0	17.900001	-14.1	1.02	100	0	25.600001	5	0	0	0	0	0	0	0	0.6656	1.9968	0	0	0.0000	0.0000	0.0000	0.0000;
	60	24.841583	12.00477	17.5	-13.8	1.02	100	1	25	3	0	0	0	0	0	0	0	0	0	0	0	0.0000	0.0000	0.0000	0.0000;
	60	24.841583	12.00477	17.5	-13.8	1.02	100	1	25	3	0	0	0	0	0	0	0	0	0	0	0	0.0000	0.0000	0.0000	0.0000;
	65	59.520429	-0.357184	44.925001	-41.929999	1.02	100	1	59.899998	40.000001	0	0	0	0	0	0	0	490	1470	0	0	0.0000	0.0000	0.0000	0.0000;
	70	39.249703	21.100989	27.700001	-21.699999	1.02	100	1	39.500001	3.5	0	0	0	0	0	0	0	0	0	0	0	0.0000	0.0000	0.0000	0.0000;
	71	877.702904	-37.738255	618.300009	-485.79998	1.02	100	1	883.300018	661.999989	0	0	0	0	0	0	0	22.2014	66.6042	0	0	0.0000	0.0000	0.0000	0.0000;
	72	542.534351	-29.686269	407.175016	-380.029988	1.02	100	1	542.89999	225	0	0	0	0	0	0	0	900	2700	0	0	0.0000	0.0000	0.0000	0.0000;
	72	543.200016	-29.686269	407.399988	-380.240011	1.02	100	1	543.200016	225	0	0	0	0	0	0	0	900	2700	0	0	0.0000	0.0000	0.0000	0.0000;
	73	29.809901	6.418672	20.999999	-16.500001	1.02	100	1	30.000001	0.1	0	0	0	0	0	0	0	0	0	0	0	0.0000	0.0000	0.0000	0.0000;
	74	3.92088	1.87641	2.8	-2.2	1.02	100	1	4	2.8	0	0	0	0	0	0	0	5000	15000	0	0	0.0000	0.0000	0.0000	0.0000;
	74	3.92088	1.87641	2.8	-2.2	1.02	100	1	4	2.8	0	0	0	0	0	0	0	5000	15000	0	0	0.0000	0.0000	0.0000	0.0000;
	74	3.92088	1.87641	2.8	-2.2	1.02	100	1	4	2.8	0	0	0	0	0	0	0	5000	15000	0	0	0.0000	0.0000	0.0000	0.0000;
	75	0	0	0.8	-0.6	1.02	100	0	1.1	0.2	0	0	0	0	0	0	0	2.2	6.6	0	0	0.0000	0.0000	0.0000	0.0000;
	75	63.793194	1.546659	48.15	-44.940001	1.02	100	1	64.200002	47	0	0	0	0	0	0	0	540	1620	0	0	0.0000	0.0000	0.0000	0.0000;
	76	32.790887	-17.395757	23.100001	-18.2	1.02	100	1	33.000001	0.3	0	0	0	0	0	0	0	0	0	0	0	0.0000	0.0000	0.0000	0.0000;
	76	60.613459	-17.395757	42.699999	-33.6	1.02	100	1	61.000001	0.5	0	0	0	0	0	0	0	0	0	0	0	0.0000	0.0000	0.0000	0.0000;
	76	90.423363	-17.395757	63.700002	-50.099999	1.02	100	1	91.000003	0.7	0	0	0	0	0	0	0	0	0	0	0	0.0000	0.0000	0.0000	0.0000;
	76	136.131895	-17.395757	95.899999	-75.400001	1.02	100	1	137	1.1	0	0	0	0	0	0	0	0	0	0	0	0.0000	0.0000	0.0000	0.0000;
	77	73.531085	4.262559	51.800001	-40.700001	1.02	100	1	74.000001	0	0	0	0	0	0	0	0	0	0	0	0	0.0000	0.0000	0.0000	0.0000;
	79	25.485721	-3.762511	18.2	-14.300001	1.02	100	1	25.999999	1	0	0	0	0	0	0	0	5000	15000	0	0	0.0000	0.0000	0.0000	0.0000;
	80	14.703302	-1.371508	10.5	-8.3	1.02	100	1	15.000001	1	0	0	0	0	0	0	0	5000	15000	0	0	0.0000	0.0000	0.0000	0.0000;
	81	24.5055	-3.852525	17.5	-13.8	1.02	100	1	25	1	0	0	0	0	0	0	0	5000	15000	0	0	0.0000	0.0000	0.0000	0.0000;
	82	23.525281	-3.517215	16.8	-13.2	1.02	100	1	23.999999	1	0	0	0	0	0	0	0	5000	15000	0	0	0.0000	0.0000	0.0000	0.0000;
	83	20.584621	1.914681	14.7	-11.6	1.02	100	1	20.999999	1	0	0	0	0	0	0	0	5000	15000	0	0	0.0000	0.0000	0.0000	0.0000;
	89	1.274286	-0.163852	0.9	-0.7	1.02	100	1	1.3	0.2	0	0	0	0	0	0	0	5000	15000	0	0	0.0000	0.0000	0.0000	0.0000;
	89	6.861541	-0.163852	4.9	-3.9	1.02	100	1	7	1	0	0	0	0	0	0	0	5000	15000	0	0	0.0000	0.0000	0.0000	0.0000;
	89	6.861541	-0.163852	4.9	-3.9	1.02	100	1	7	1	0	0	0	0	0	0	0	5000	15000	0	0	0.0000	0.0000	0.0000	0.0000;
	89	6.861541	-0.163852	4.9	-3.9	1.02	100	1	7	1	0	0	0	0	0	0	0	5000	15000	0	0	0.0000	0.0000	0.0000	0.0000;
	89	6.861541	-0.163852	4.9	-3.9	1.02	100	1	7	1	0	0	0	0	0	0	0	5000	15000	0	0	0.0000	0.0000	0.0000	0.0000;
	89	6.861541	-0.163852	4.9	-3.9	1.02	100	1	7	1	0	0	0	0	0	0	0	5000	15000	0	0	0.0000	0.0000	0.0000	0.0000;
	90	14.308752	5.475864	10.1	-7.9	1.02	100	1	14.399999	2	0	0	0	0	0	0	0	0	0	0	0	0.0000	0.0000	0.0000	0.0000;
	91	8.821981	6.3	6.3	-5	1.02	100	1	9	4	0	0	0	0	0	0	0	5000	15000	0	0	0.0000	0.0000	0.0000	0.0000;
	91	46.070346	19.382879	32.9	-25.9	1.02	100	1	47	8	0	0	0	0	0	0	0	5000	15000	0	0	0.0000	0.0000	0.0000	0.0000;
	94	0	0	29.499999	-23.199999	1.02	100	0	42.1	2	0	0	0	0	0	0	0	15.6	46.8	0	0	0.0000	0.0000	0.0000	0.0000;
	95	0	0	80.400002	-75.040001	1.02	100	0	107.200003	56	0	0	0	0	0	0	0	300	900	0	0	0.0000	0.0000	0.0000	0.0000;
	95	338.333488	-22.136131	254.099989	-237.159991	1.02	100	1	338.800001	100.999999	0	0	0	0	0	0	0	300	900	0	0	0.0000	0.0000	0.0000	0.0000;
	97	17.643961	2.042538	12.6	-9.9	1.02	100	1	18.000001	1	0	0	0	0	0	0	0	5000	15000	0	0	0.0000	0.0000	0.0000	0.0000;
	100	41.634494	-23	29.300001	-23	1.02	100	1	41.9	5	0	0	0	0	0	0	0	200	600	0	0	0.0000	0.0000	0.0000	0.0000;
	100	769.999981	-65.95515	577.50001	-538.999987	1.02	100	1	769.999981	385.99999	0	0	0	0	0	0	0	900	2700	0	0	0.0000	0.0000	0.0000	0.0000;
	102	46.205348	32.600001	32.600001	-25.600001	1.02	100	1	46.5	5	0	0	0	0	0	0	0	219	657	0	0	0.0000	0.0000	0.0000	0.0000;
	103	0	0	0.1	-0.1	1.02	100	0	0.2	0.1	0	0	0	0	0	0	0	0.5	1.5	0	0	0.0000	0.0000	0.0000	0.0000;
	103	0	0	0.3	-0.2	1.02	100	0	0.4	0.3	0	0	0	0	0	0	0	1	3	0	0	0.0000	0.0000	0.0000	0.0000;
	103	0	0	0.6	-0.4	1.02	100	0	0.8	0.2	0	0	0	0	0	0	0	2	6	0	0	0.0000	0.0000	0.0000	0.0000;
	103	0	0	0.7	-0.6	1.02	100	0	1	0.1	0	0	0	0	0	0	0	2	6	0	0	0.0000	0.0000	0.0000	0.0000;
	103	0	0	0.7	-0.6	1.02	100	0	1	0.3	0	0	0	0	0	0	0	2	6	0	0	0.0000	0.0000	0.0000	0.0000;
	103	0	0	0.7	-0.6	1.02	100	0	1	0.2	0	0	0	0	0	0	0	2	6	0	0	0.0000	0.0000	0.0000	0.0000;
	103	0	0	1.1	-0.8	1.02	100	0	1.5	0.1	0	0	0	0	0	0	0	3	9	0	0	0.0000	0.0000	0.0000	0.0000;
	103	0	0	1.1	-0.8	1.02	100	0	1.5	0.1	0	0	0	0	0	0	0	3	9	0	0	0.0000	0.0000	0.0000	0.0000;
	103	0	0	1.1	-0.8	1.02	100	0	1.5	0.3	0	0	0	0	0	0	0	3	9	0	0	0.0000	0.0000	0.0000	0.0000;
	103	0	0	1.4	-1.1	1.02	100	0	2	0.3	0	0	0	0	0	0	0	4	12	0	0	0.0000	0.0000	0.0000	0.0000;
	103	0	0	1.4	-1.1	1.02	100	0	2	0.3	0	0	0	0	0	0	0	4	12	0	0	0.0000	0.0000	0.0000	0.0000;
	103	0	0	1.8	-1.4	1.02	100	0	2.5	0.3	0	0	0	0	0	0	0	5	15	0	0	0.0000	0.0000	0.0000	0.0000;
	104	15.898612	-8.8	11.2	-8.8	1.01	100	1	16	10.6	0	0	0	0	0	0	0	83	249	0	0	0.0000	0.0000	0.0000	0.0000;
	104	0	0	37.099999	-29.2	1.01	100	0	52.999997	37	0	0	0	0	0	0	0	233.5	700.5	0	0	0.0000	0.0000	0.0000	0.0000;
	104	0	0	37.099999	-29.2	1.01	100	0	52.999997	37	0	0	0	0	0	0	0	235.5	706.5	0	0	0.0000	0.0000	0.0000	0.0000;
	104	186.808717	-99.000371	131.599998	-103.400004	1.01	100	1	188	15.000001	0	0	0	0	0	0	0	75.68	227.04	0	0	0.0000	0.0000	0.0000	0.0000;
	104	186.808717	-99.000371	131.599998	-103.400004	1.01	100	1	188	15.000001	0	0	0	0	0	0	0	77.88	233.64	0	0	0.0000	0.0000	0.0000	0.0000;
	105	229.999995	-199.677372	261.675	-244.230008	1.01	100	1	348.899984	229.999995	0	0	0	0	0	0	0	600	1800	0	0	0.0000	0.0000	0.0000	0.0000;
	106	528.000021	364.368725	396.000004	-369.60001	1.02	100	1	528.000021	202.999997	0	0	0	0	0	0	0	900	2700	0	0	0.0000	0.0000	0.0000	0.0000;
	107	41.634494	6.226598	29.300001	-23	1.02	100	1	41.9	18.6	0	0	0	0	0	0	0	227.5	682.5	0	0	0.0000	0.0000	0.0000	0.0000;
	107	41.634494	6.226598	29.300001	-23	1.02	100	1	41.9	18.6	0	0	0	0	0	0	0	224	672	0	0	0.0000	0.0000	0.0000	0.0000;
	107	41.634494	6.226598	29.300001	-23	1.02	100	1	41.9	18.6	0	0	0	0	0	0	0	233	699	0	0	0.0000	0.0000	0.0000	0.0000;
	107	41.634494	6.226598	29.300001	-23	1.02	100	1	41.9	18.6	0	0	0	0	0	0	0	226	678	0	0	0.0000	0.0000	0.0000	0.0000;
	107	41.634494	6.226598	29.300001	-23	1.02	100	1	41.9	18.6	0	0	0	0	0	0	0	229	687	0	0	0.0000	0.0000	0.0000	0.0000;
	107	41.634494	6.226598	29.300001	-23	1.02	100	1	41.9	18.6	0	0	0	0	0	0	0	235	705	0	0	0.0000	0.0000	0.0000	0.0000;
...
];

%% branch data
%	fbus	tbus	r	x	b	rateA	rateB	rateC	ratio	angle	status	angmin	angmax	Pf	Qf	Pt	Qt	mu_Sf	mu_St	mu_angmin	mu_angmax
mpc.branch = [
	1	49	0.00102	0.00421	0.0007	167	556	210	0	0	1	0	0	25.0300	-0.0500	-25.0300	0.0100	0.0000	0.0000	0.0000	0.0000;
	1	49	0.00105	0.00435	0.00072	167	556	210	0	0	1	0	0	24.2300	-0.0300	-24.2300	-0.0100	0.0000	0.0000	0.0000	0.0000;
	1	49	0.00103	0.00425	0.0007	167	556	210	0	0	1	0	0	24.8000	-0.0600	-24.7900	0.0100	0.0000	0.0000	0.0000	0.0000;
	1	87	0.00637	0.02634	0.00436	167	556	210	0	0	1	0	0	12.9400	-1.8200	-12.9300	1.4400	0.0000	0.0000	0.0000	0.0000;
	1	305	0.00495	0.0211	0.0027	167	556	210	0	0	1	0	0	-80.5200	0.9800	80.8500	0.1400	0.0000	0.0000	0.0000	0.0000;
	1	305	0.00495	0.0211	0.0027	167	556	210	0	0	1	0	0	-80.5200	0.9800	80.8500	0.1400	0.0000	0.0000	0.0000	0.0000;
	4	137	0.0017	0.0085	0.064	300	300	330	0	0	1	0	0	155.6200	-83.0000	-155.1100	78.9900	0.0000	0.0000	0.0000	0.0000;
	4	137	0.0017	0.0085	0.064	300	300	330	0	0	1	0	0	155.6200	-83.0000	-155.1100	78.9900	0.0000	0.0000	0.0000	0.0000;
	7	80	0.02031	0.06988	0.00859	116	556	145	0	0	1	0	0	-24.6800	4.4800	24.8000	-4.9400	0.0000	0.0000	0.0000	0.0000;
	9	107	1e-05	0.00019	0.00501	1216	2454	1804	0	0	1	0	0	373.0300	7.2900	-373.0100	-7.5600	0.0000	0.0000	0.0000	0.0000;
	9	107	1e-05	0.00018	0.00468	1216	2454	1804	0	0	1	0	0	393.7100	6.5800	-393.6900	-6.8000	0.0000	0.0000	0.0000	0.0000;
	269	11	0.0005	0.00205	0.00034	116	556	145	0	0	1	0	0	37.3800	-7.4800	-37.3700	7.4700	0.0000	0.0000	0.0000	0.0000;
	52	12	0.01428	0.05907	0.00978	167	556	210	0	0	1	0	0	-36.9800	-2.9500	37.1700	2.7300	0.0000	0.0000	0.0000	0.0000;
	15	14	0.0006	0.0027	0.00044	135	556	175	0	0	1	0	0	10.6400	-2.3900	-10.6400	2.3400	0.0000	0.0000	0.0000	0.0000;
	15	35	0.0108	0.0428	0.0055	120	556	120	0	0	1	0	0	4.7700	-1.4800	-4.7700	0.9200	0.0000	0.0000	0.0000	0.0000;
	15	91	0.00565	0.02337	0.00387	167	556	210	0	0	1	0	0	77.5900	-18.2100	-77.2500	19.2300	0.0000	0.0000	0.0000	0.0000;
	16	44	0.00862	0.03565	0.0059	167	556	210	0	0	1	0	0	84.9500	-13.8500	-84.3300	15.7700	0.0000	0.0000	0.0000	0.0000;
	18	92	0.01865	0.07712	0.01277	116	556	145	0	0	1	0	0	49.6500	-25.4800	-49.0700	26.5700	0.0000	0.0000	0.0000	0.0000;
	18	92	0.01865	0.07712	0.01277	116	556	145	0	0	1	0	0	49.6500	-25.4800	-49.0700	26.5700	0.0000	0.0000	0.0000	0.0000;
	21	273	0.00092	0.0074	0.02824	453	936	579	0	0	1	0	0	87.1100	-7.7000	-87.0400	5.3100	0.0000	0.0000	0.0000	0.0000;
	25	41	0.00359	0.02888	0.11019	453	936	579	0	0	1	0	0	-107.2400	27.4300	107.6700	-35.5200	0.0000	0.0000	0.0000	0.0000;
	272	25	0.00498	0.04	0.15261	453	936	579	0	0	1	0	0	-106.6800	15.8200	107.2400	-27.4300	0.0000	0.0000	0.0000	0.0000;
	28	27	0	5e-05	0.00123	1216	1216	1804	0	0	1	0	0	572.5400	-27.9600	-572.5400	27.9900	0.0000	0.0000	0.0000	0.0000;
	27	150	0.00025	0.00383	0.09893	1216	2454	1804	0	0	1	0	0	572.5400	-27.9900	-571.7500	29.7800	0.0000	0.0000	0.0000	0.0000;
	28	172	0.00024	0.00373	0.096	1216	1216	1804	0	0	1	0	0	81.1000	39.4100	-81.0800	-49.0700	0.0000	0.0000	0.0000	0.0000;
	107	30	0.00012	0.0023	0.05	1200	1200	1200	0	0	1	0	0	139.7400	-11.9100	-139.7200	7.1400	0.0000	0.0000	0.0000	0.0000;
	107	30	0.00012	0.0023	0.05	1200	1200	1200	0	0	1	0	0	139.7400	-11.9100	-139.7200	7.1400	0.0000	0.0000	0.0000	0.0000;
	30	220	8e-05	0.00129	0.03339	1216	2454	1804	0	0	1	0	0	345.6500	-22.4300	-345.5600	20.4400	0.0000	0.0000	0.0000	0.0000;
	30	220	8e-05	0.00129	0.03342	1216	2454	1804	0	0	1	0	0	345.6500	-22.4300	-345.5600	20.4400	0.0000	0.0000	0.0000	0.0000;
	209	33	0.00012	0.00048	8e-05	167	556	210	0	0	1	0	0	-32.2000	8.0500	32.2000	-8.0500	0.0000	0.0000	0.0000	0.0000;
	38	85	0.00237	0.0098	0.00162	167	556	210	0	0	1	0	0	3.8400	-1.3200	-3.8400	1.1600	0.0000	0.0000	0.0000	0.0000;
	312	40	0.02249	0.09302	0.0154	167	556	210	0	0	1	0	0	-66.8300	10.1200	67.8300	-7.5600	0.0000	0.0000	0.0000	0.0000;
	312	40	0.02249	0.09302	0.0154	167	556	210	0	0	1	0	0	-66.8300	10.1200	67.8300	-7.5600	0.0000	0.0000	0.0000	0.0000;
	41	264	0.00075	0.00602	0.02297	453	936	579	0	0	1	0	0	-150.6900	37.2100	150.8700	-38.2000	0.0000	0.0000	0.0000	0.0000;
	212	42	1e-05	6e-05	0.00023	453	936	579	0	0	1	0	0	-93.8000	24.6000	93.8000	-24.6100	0.0000	0.0000	0.0000	0.0000;
	43	44	9e-05	0.00037	6e-05	167	556	210	0	0	1	0	0	-77.7000	6.8300	77.7000	-6.8200	0.0000	0.0000	0.0000	0.0000;
	232	45	0.00011	0.00044	7e-05	167	556	210	0	0	1	0	0	4.0300	2.0700	-4.0300	-2.0800	0.0000	0.0000	0.0000	0.0000;
	46	289	0.00041	0.00171	0.00028	167	556	210	0	0	1	0	0	3.1700	-0.7700	-3.1700	0.7400	0.0000	0.0000	0.0000	0.0000;
	48	305	0.00454	0.01879	0.00311	167	556	210	0	0	1	0	0	-86.8400	23.3000	87.2100	-22.0800	0.0000	0.0000	0.0000	0.0000;
	48	305	0.0034	0.01404	0.00233	167	556	210	0	0	1	0	0	-116.1900	31.3300	116.6900	-29.5200	0.0000	0.0000	0.0000	0.0000;
	189	50	0.00907	0.03749	0.00621	167	556	210	0	0	1	0	0	19.8400	-1.8500	-19.8100	1.3500	0.0000	0.0000	0.0000	0.0000;
	53	54	0.01878	0.07765	0.01286	167	556	210	0	0	1	0	0	-18.0800	2.3000	18.1400	-3.3500	0.0000	0.0000	0.0000	0.0000;
	53	55	0.02229	0.09216	0.01526	167	556	210	0	0	1	0	0	-21.2400	2.4400	21.3500	-3.5800	0.0000	0.0000	0.0000	0.0000;
	54	55	0.00413	0.01708	0.00283	167	556	210	0	0	1	0	0	-32.5400	3.3500	32.5800	-3.4600	0.0000	0.0000	0.0000	0.0000;
	312	55	0.00573	0.02368	0.00392	167	556	210	0	0	1	0	0	23.0200	4.5300	-22.9900	-4.8000	0.0000	0.0000	0.0000	0.0000;
	312	55	0.00587	0.02426	0.00402	167	556	210	0	0	1	0	0	22.4700	4.4100	-22.4400	-4.7000	0.0000	0.0000	0.0000	0.0000;
	59	257	0.00124	0.01898	0.49058	1216	2454	1804	0	0	1	0	0	-568.5500	71.8500	572.4800	-62.8700	0.0000	0.0000	0.0000	0.0000;
	259	59	0.00067	0.0102	0.26376	1216	2454	1804	0	0	1	0	0	-418.9200	66.3400	420.0700	-76.6100	0.0000	0.0000	0.0000	0.0000;
	61	62	0.00055	0.00439	0.01676	453	936	579	0	0	1	0	0	-102.8200	26.9100	102.8800	-28.1700	0.0000	0.0000	0.0000	0.0000;
	61	260	9e-05	0.00074	0.00282	453	936	579	0	0	1	0	0	-1.4200	-3.4700	1.4200	3.1800	0.0000	0.0000	0.0000	0.0000;
	61	260	7e-05	0.00054	0.00207	453	936	579	0	0	1	0	0	-1.9800	-4.6400	1.9800	4.4300	0.0000	0.0000	0.0000	0.0000;
	61	260	5e-05	0.00041	0.00156	453	936	579	0	0	1	0	0	-2.5700	-6.0800	2.5700	5.9200	0.0000	0.0000	0.0000	0.0000;
	61	260	5e-05	0.0004	0.00154	453	936	579	0	0	1	0	0	-2.6500	-6.2200	2.6500	6.0600	0.0000	0.0000	0.0000	0.0000;
	61	260	5e-05	0.00041	0.00155	453	936	579	0	0	1	0	0	-2.5700	-6.0800	2.5700	5.9200	0.0000	0.0000	0.0000	0.0000;
	61	260	0.0001	0.00082	0.00312	453	936	579	0	0	1	0	0	-1.2800	-3.1600	1.2800	2.8400	0.0000	0.0000	0.0000	0.0000;
	62	276	0.00055	0.0044	0.01678	453	936	579	0	0	1	0	0	-200.7100	30.5700	200.9200	-30.5600	0.0000	0.0000	0.0000	0.0000;
	200	63	2e-05	0.00018	0.0007	453	936	579	0	0	1	0	0	46.4000	-2.2400	-46.4000	2.1700	0.0000	0.0000	0.0000	0.0000;
	201	63	3e-05	0.00022	0.00085	453	936	579	0	0	1	0	0	46.0800	-2.2600	-46.0800	2.1700	0.0000	0.0000	0.0000	0.0000;
	200	64	0.00155	0.01248	0.0476	453	936	579	0	0	1	0	0	-160.2700	24.0700	160.6700	-25.8400	0.0000	0.0000	0.0000	0.0000;
	201	64	0.00155	0.01247	0.04759	453	936	579	0	0	1	0	0	-160.2500	24.1200	160.6500	-25.8800	0.0000	0.0000	0.0000	0.0000;
	64	266	0.00018	0.00143	0.00547	453	936	579	0	0	1	0	0	86.5600	-6.8700	-86.5400	6.4000	0.0000	0.0000	0.0000	0.0000;
	64	266	0.00018	0.00142	0.00541	453	936	579	0	0	1	0	0	87.1500	-6.9800	-87.1400	6.5300	0.0000	0.0000	0.0000	0.0000;
	277	64	1e-05	5e-05	0.00018	453	936	579	0	0	1	0	0	245.0100	-32.3200	-245.0000	32.3300	0.0000	0.0000	0.0000	0.0000;
	278	64	1e-05	5e-05	0.00018	453	936	579	0	0	1	0	0	250.0200	-33.2300	-250.0200	33.2400	0.0000	0.0000	0.0000	0.0000;
	66	67	2e-05	0.00023	0.00601	1216	2454	1804	0	0	1	0	0	-202.6500	26.9100	202.6600	-27.4400	0.0000	0.0000	0.0000	0.0000;
	66	257	4e-05	0.00057	0.01474	1216	2454	1804	0	0	1	0	0	202.6500	-26.9100	-202.6300	25.6100	0.0000	0.0000	0.0000	0.0000;
	67	68	0.00054	0.00818	0.21135	1216	2454	1804	0	0	1	0	0	-202.6600	27.4400	202.8800	-45.9800	0.0000	0.0000	0.0000	0.0000;
	68	250	0.00095	0.01444	0.37333	1216	2454	1804	0	0	1	0	0	-505.7800	14.8800	508.1400	-17.6900	0.0000	0.0000	0.0000	0.0000;
	69	251	0.00049	0.00744	0.19225	1216	2454	1804	0	0	1	0	0	-678.5000	18.0700	680.6700	-4.9500	0.0000	0.0000	0.0000	0.0000;
	69	257	0.00027	0.00411	0.10625	1216	2454	1804	0	0	1	0	0	370.2100	-42.7900	-369.8500	37.2600	0.0000	0.0000	0.0000	0.0000;
	71	253	2e-05	0.00024	0.00613	1216	2454	1804	0	0	1	0	0	381.5600	-16.3300	-381.5300	16.0300	0.0000	0.0000	0.0000	0.0000;
	71	253	2e-05	0.00024	0.00614	1216	2454	1804	0	0	1	0	0	381.5600	-16.3300	-381.5300	16.0300	0.0000	0.0000	0.0000	0.0000;
	72	255	1e-05	0.00022	0.00572	2454	2454	2454	0	0	1	0	0	503.3400	-25.6300	-503.3200	25.5700	0.0000	0.0000	0.0000	0.0000;
	72	255	1e-05	0.00019	0.00482	2454	2454	2454	0	0	1	0	0	582.3900	-33.7400	-582.3600	33.8600	0.0000	0.0000	0.0000	0.0000;
	76	238	0.00205	0.01649	0.0629	453	936	579	0	0	1	0	0	140.3100	-32.1300	-139.9000	28.8200	0.0000	0.0000	0.0000	0.0000;
	76	239	0.0023	0.0149	0.028	453	936	579	0	0	1	0	0	179.6500	-37.4600	-178.9100	39.3500	0.0000	0.0000	0.0000	0.0000;
	79	78	0.001	0.00405	0.00065	167	556	210	0	0	1	0	0	11.3700	-1.8500	-11.3700	1.7800	0.0000	0.0000	0.0000	0.0000;
	84	85	0.0284	0.11743	0.01945	167	556	210	0	0	1	0	0	-52.4500	7.9100	53.2300	-6.6600	0.0000	0.0000	0.0000	0.0000;
	85	309	0.01056	0.04366	0.00723	167	556	210	0	0	1	0	0	-56.5500	7.4500	56.8800	-6.8300	0.0000	0.0000	0.0000	0.0000;
	85	309	0.01087	0.04493	0.00744	167	556	210	0	0	1	0	0	-54.9500	7.2200	55.2700	-6.6600	0.0000	0.0000	0.0000	0.0000;
	206	86	0.00155	0.00639	0.00106	167	556	210	0	0	1	0	0	-0.3900	-0.1600	0.3900	0.0500	0.0000	0.0000	0.0000	0.0000;
	207	86	0.00153	0.00633	0.00105	167	556	210	0	0	1	0	0	4.5500	-0.0500	-4.5500	-0.0500	0.0000	0.0000	0.0000	0.0000;
	87	305	0.00573	0.02368	0.00392	211	556	233	0	0	1	0	0	-85.9700	3.4000	86.4000	-2.0000	0.0000	0.0000	0.0000	0.0000;
	236	88	0.01673	0.06919	0.01146	167	556	210	0	0	1	0	0	17.7700	1.3000	-17.7100	-2.2700	0.0000	0.0000	0.0000	0.0000;
	91	145	0.01395	0.05768	0.00955	167	556	210	0	0	1	0	0	15.5000	-4.1700	-15.4600	3.3200	0.0000	0.0000	0.0000	0.0000;
	98	143	1e-05	0.00011	0.00273	1216	2454	1804	0	0	1	0	0	-54.8700	-9.3800	54.8700	9.1100	0.0000	0.0000	0.0000	0.0000;
	98	143	1e-05	0.00014	0.0035	1216	2454	1804	0	0	1	0	0	-43.0300	-8.2900	43.0300	7.9300	0.0000	0.0000	0.0000	0.0000;
	99	187	0.00024	0.00373	0.09633	1216	2454	1804	0	0	1	0	0	-44.6900	-6.6500	44.6900	-3.1100	0.0000	0.0000	0.0000	0.0000;
	103	125	0.00028	0.00425	0.10981	1216	2454	1804	0	0	1	0	0	631.0800	-49.5700	-629.9900	54.8300	0.0000	0.0000	0.0000	0.0000;
	103	125	0.00028	0.00425	0.10981	1216	2454	1804	0	0	1	0	0	631.0800	-49.5700	-629.9900	54.8300	0.0000	0.0000	0.0000	0.0000;
	103	125	0.00028	0.00429	0.1109	1216	2454	1804	0	0	1	0	0	625.2500	-48.8300	-624.1800	53.8400	0.0000	0.0000	0.0000	0.0000;
	103	125	0.00028	0.0043	0.11125	1216	2454	1804	0	0	1	0	0	623.8100	-48.6600	-622.7400	53.5900	0.0000	0.0000	0.0000	0.0000;
	103	191	0.00028	0.00424	0.10951	1216	2454	1804	0	0	1	0	0	-658.1900	55.0500	659.3800	-48.2600	0.0000	0.0000	0.0000	0.0000;
	103	191	0.00028	0.00432	0.11162	1216	2454	1804	0	0	1	0	0	-646.1300	53.0300	647.2800	-46.8000	0.0000	0.0000	0.0000	0.0000;
	103	191	0.00028	0.0043	0.11121	1216	2454	1804	0	0	1	0	0	-649.1000	53.5200	650.2600	-47.1600	0.0000	0.0000	0.0000	0.0000;
	103	194	0.0006	0.00919	0.23757	1216	2454	1804	0	0	1	0	0	-557.7900	35.0100	559.6200	-31.4000	0.0000	0.0000	0.0000	0.0000;
	104	130	0.00178	0.00889	0.06732	261	562	432	0	0	1	0	0	50.2300	-47.3200	-50.1500	40.8200	0.0000	0.0000	0.0000	0.0000;
	104	130	0.00177	0.00885	0.06702	261	562	432	0	0	1	0	0	50.4700	-47.4900	-50.3900	41.0300	0.0000	0.0000	0.0000	0.0000;
	105	130	0.00199	0.00994	0.07534	261	562	432	0	0	1	0	0	-72.7400	-19.4300	72.8400	12.2700	0.0000	0.0000	0.0000	0.0000;
	105	228	0.00144	0.00719	0.05447	261	562	432	0	0	1	0	0	90.6200	-53.3800	-90.4700	48.5700	0.0000	0.0000	0.0000	0.0000;
	105	228	0.00143	0.00712	0.05398	261	562	432	0	0	1	0	0	91.4800	-53.8900	-91.3200	49.1400	0.0000	0.0000	0.0000	0.0000;
	105	228	0.00143	0.00712	0.05398	261	562	432	0	0	1	0	0	91.4800	-53.8900	-91.3200	49.1400	0.0000	0.0000	0.0000	0.0000;
	126	106	0.00015	0.00077	0.00583	562	562	562	0	0	1	0	0	-273.6700	-74.2000	273.7800	74.1900	0.0000	0.0000	0.0000	0.0000;
	126	106	0.00015	0.00077	0.00583	562	562	562	0	0	1	0	0	-273.6700	-74.2000	273.7800	74.1900	0.0000	0.0000	0.0000	0.0000;
	108	124	0.00046	0.00697	0.18022	600	2454	1804	0	0	1	0	0	-184.6200	-6.8500	184.7700	-9.3400	0.0000	0.0000	0.0000	0.0000;
	163	109	2e-05	0.00016	0.0006	453	936	579	0	0	1	0	0	-44.1300	8.2000	44.1300	-8.2600	0.0000	0.0000	0.0000	0.0000;
	164	109	1e-05	0.00011	0.00044	453	936	579	0	0	1	0	0	-169.5000	16.4800	169.5000	-16.5000	0.0000	0.0000	0.0000	0.0000;
	112	304	0.00023	0.00114	0.00866	261	562	432	0	0	1	0	0	-143.9700	10.8800	144.0200	-11.5300	0.0000	0.0000	0.0000	0.0000;
	114	300	0.02818	0.06407	0.00125	200	125	200	0	0	1	0	0	19.8900	15.6800	-19.7200	-15.4100	0.0000	0.0000	0.0000	0.0000;
	114	300	0.02818	0.06407	0.00125	200	125	200	0	0	1	0	0	19.8900	15.6800	-19.7200	-15.4100	0.0000	0.0000	0.0000	0.0000;
	115	306	0.00181	0.01457	0.05559	936	936	936	0	0	1	0	0	466.9100	93.9100	-462.9500	-67.7400	0.0000	0.0000	0.0000	0.0000;
	115	307	0.00208	0.01673	0.06382	900	900	900	0	0	1	0	0	185.2700	18.5200	-184.5800	-19.5200	0.0000	0.0000	0.0000	0.0000;
	115	307	0.00208	0.01673	0.06382	900	900	900	0	0	1	0	0	185.2700	18.5200	-184.5800	-19.5200	0.0000	0.0000	0.0000	0.0000;
	120	122	0.00012	0.00182	0.04706	1216	2454	1804	0	0	1	0	0	-301.7000	-42.0300	301.8100	38.6200	0.0000	0.0000	0.0000	0.0000;
	120	122	0.00012	0.00182	0.04707	1216	2454	1804	0	0	1	0	0	-301.7000	-42.0300	301.8100	38.6200	0.0000	0.0000	0.0000	0.0000;
	120	295	1e-05	0.03356	0	775	775	775	1	0	1	0	0	242.1800	31.0400	-242.1800	-12.1800	0.0000	0.0000	0.0000	0.0000;
	120	295	1e-05	0.03356	0	775	775	775	1	0	1	0	0	242.1800	31.0400	-242.1800	-12.1800	0.0000	0.0000	0.0000	0.0000;
	120	296	6e-05	0.00089	0.02291	1216	2454	1804	0	0	1	0	0	118.6400	10.4800	-118.6300	-12.7900	0.0000	0.0000	0.0000	0.0000;
	122	125	0.00073	0.01109	0.28674	1500	2454	1804	0	0	1	0	0	-424.1700	181.2300	425.6700	-188.4200	0.0000	0.0000	0.0000	0.0000;
	122	125	0.00073	0.01109	0.28674	1500	2454	1804	0	0	1	0	0	-424.1700	181.2300	425.6700	-188.4200	0.0000	0.0000	0.0000	0.0000;
	123	296	0	1e-05	0	1216	2454	1804	1	0	1	0	0	-118.6300	-12.7900	118.6300	12.7900	0.0000	0.0000	0.0000	0.0000;
	124	125	5e-05	0.00082	0.02111	1216	2454	1804	0	0	1	0	0	-71.5500	-34.4100	71.5500	32.2900	0.0000	0.0000	0.0000	0.0000;
	124	125	4e-05	0.00055	0.01432	1216	2454	1804	0	0	1	0	0	-107.1700	-49.1300	107.1700	47.7400	0.0000	0.0000	0.0000	0.0000;
	124	125	5e-05	0.0007	0.01801	1216	2454	1804	0	0	1	0	0	-84.1600	-39.0600	84.1600	37.2700	0.0000	0.0000	0.0000	0.0000;
	124	125	4e-05	0.00055	0.01426	1216	2454	1804	0	0	1	0	0	-107.1700	-49.1300	107.1700	47.7400	0.0000	0.0000	0.0000	0.0000;
...